FOX-7.09.alpha
  MatStudio         3D                             0

 14 13  0  0  0  0  0  0  0  0999 V2000
    1.3473    2.1834    3.7846 O   0  5  0  0  0  0  0  0  0  0
   -0.1418    2.9026    2.3984 O   0  0  0  0  0  0  0  0  0  0
    4.0200    1.9571    0.8782 O   0  0  0  0  0  0  0  0  0  0
    3.6123    2.8937    2.7937 O   0  5  0  0  0  0  0  0  0  0
    0.9842    2.4404    2.6304 N   0  3  0  0  0  0  0  0  0  0
    3.2140    2.3298    1.7559 N   0  3  0  0  0  0  0  0  0  0
   -0.0349    1.5943    0.1140 N   0  0  0  0  0  0  0  0  0  0
    2.0630    1.2918   -0.7137 N   0  0  0  0  0  0  0  0  0  0
    1.8446    2.1667    1.5296 C   0  0  0  0  0  0  0  0  0  0
    1.2825    1.6897    0.2773 C   0  0  0  0  0  0  0  0  0  0
   -0.4064    1.3040   -0.7748 H   0  0  0  0  0  0  0  0  0  0
   -0.6613    1.9607    0.8114 H   0  0  0  0  0  0  0  0  0  0
    1.6171    0.9878   -1.5628 H   0  0  0  0  0  0  0  0  0  0
    3.0637    1.3036   -0.6074 H   0  0  0  0  0  0  0  0  0  0
  5  2  2  0  0  0
  5  1  1  0  0  0
  6  3  2  0  0  0
  6  4  1  0  0  0
  9  6  1  0  0  0
  9  5  1  0  0  0
 10  7  1  0  0  0
 10  9  2  0  0  0
 10  8  1  0  0  0
 11  7  1  0  0  0
 12  7  1  0  0  0
 13  8  1  0  0  0
 14  8  1  0  0  0
M  END
