BTF
  MatStudio         3D                             0

 18 21  0  0  0  0  0  0  0  0999 V2000
    2.8834    1.9418    0.0000 C   0  0  0  0  0  0  0  0  0  0
    4.1600    1.4500   -0.4504 C   0  0  0  0  0  0  0  0  0  0
    4.7298    1.8540   -1.6647 C   0  0  0  0  0  0  0  0  0  0
    4.0029    2.7576   -2.4879 C   0  0  0  0  0  0  0  0  0  0
    2.7519    3.3041   -2.0773 C   0  0  0  0  0  0  0  0  0  0
    2.2264    2.8786   -0.8180 C   0  0  0  0  0  0  0  0  0  0
    2.2285    1.6608    1.0931 N   0  5  0  0  0  0  0  0  0  0
    4.9956    0.6187    0.1408 N   0  3  0  0  0  0  0  0  0  0
    5.9247    1.3193   -1.8531 N   0  5  0  0  0  0  0  0  0  0
    4.2597    3.2338   -3.7022 N   0  3  0  0  0  0  0  0  0  0
    2.2465    4.1101   -2.9624 N   0  5  0  0  0  0  0  0  0  0
    1.0994    3.2260   -0.1897 N   0  3  0  0  0  0  0  0  0  0
    1.0717    2.4434    1.0494 O   0  0  0  0  0  0  0  0  0  0
    4.9790   -0.0273    1.1648 O   0  0  0  0  0  0  0  0  0  0
    6.1587    0.5347   -0.7411 O   0  0  0  0  0  0  0  0  0  0
    5.1313    3.1050   -4.5196 O   0  0  0  0  0  0  0  0  0  0
    3.1382    4.1413   -4.0112 O   0  0  0  0  0  0  0  0  0  0
    0.1814    3.9715   -0.4276 O   0  0  0  0  0  0  0  0  0  0
  2  1  1  0  0  0
  3  2  2  0  0  0
  4  3  1  0  0  0
  5  4  2  0  0  0
  6  5  1  0  0  0
  6  1  2  0  0  0
  7  1  1  0  0  0
  8  2  1  0  0  0
  9  3  1  0  0  0
 10  4  1  0  0  0
 11  5  1  0  0  0
 12  6  1  0  0  0
 13  7  1  0  0  0
 13 12  1  0  0  0
 14  8  2  0  0  0
 15  9  1  0  0  0
 15  8  1  0  0  0
 16 10  2  0  0  0
 17 10  1  0  0  0
 17 11  1  0  0  0
 18 12  2  0  0  0
M  END
